data_MAF-41_HT-SC_ST
_audit_creation_date              2019-01-09
_audit_creation_method            'Materials Studio'
_symmetry_space_group_name_H-M    'P1'
_symmetry_Int_Tables_number       1
_symmetry_cell_setting            triclinic
loop_
_symmetry_equiv_pos_as_xyz
  x,y,z
_cell_length_a                    14.6830
_cell_length_b                    8.2660
_cell_length_c                    16.5540
_cell_angle_alpha                 90.0000
_cell_angle_beta                  92.7670
_cell_angle_gamma                 90.0000
loop_
_atom_site_label
_atom_site_type_symbol
_atom_site_fract_x
_atom_site_fract_y
_atom_site_fract_z
_atom_site_U_iso_or_equiv
_atom_site_adp_type
_atom_site_occupancy
N1     N     0.65449   0.16049   0.55431   0.04891  Uani   1.00
N2     N     0.55925   0.09252   0.65307   0.04454  Uani   1.00
F3     F     0.70432   0.40664   0.68380   0.08617  Uani   1.00
F4     F     0.79112   0.19153   0.68358   0.13419  Uani   1.00
F5     F     0.68398   0.21171   0.77112   0.13602  Uani   1.00
C6     C     0.70390   0.24245   0.69360   0.06346  Uani   1.00
C7     C     0.63808   0.16277   0.63370   0.04642  Uani   1.00
C8     C     0.58015   0.08077   0.51768   0.04569  Uani   1.00
C9     C     0.52039   0.03789   0.57974   0.04374  Uani   1.00
C10    C     0.43846   0.95569   0.56376   0.04443  Uani   1.00
H11    H     0.39261   0.92233   0.61113   0.05300  Uiso   1.00
N12    N     0.15449   0.66049   0.55431   0.04891  Uani   1.00
N13    N     0.05925   0.59252   0.65307   0.04454  Uani   1.00
F14    F     0.20432   0.90664   0.68380   0.08617  Uani   1.00
F15    F     0.29112   0.69153   0.68358   0.13419  Uani   1.00
F16    F     0.18398   0.71171   0.77112   0.13602  Uani   1.00
C17    C     0.20390   0.74245   0.69360   0.06346  Uani   1.00
C18    C     0.13808   0.66277   0.63370   0.04642  Uani   1.00
C19    C     0.08015   0.58077   0.51768   0.04569  Uani   1.00
C20    C     0.02039   0.53789   0.57974   0.04374  Uani   1.00
C21    C     0.93846   0.45569   0.56376   0.04443  Uani   1.00
H22    H     0.89261   0.42233   0.61113   0.05300  Uiso   1.00
N23    N     0.34551   0.16049   0.94569   0.04891  Uani   1.00
N24    N     0.44075   0.09252   0.84693   0.04454  Uani   1.00
F25    F     0.29568   0.40664   0.81620   0.08617  Uani   1.00
F26    F     0.20888   0.19154   0.81642   0.13419  Uani   1.00
F27    F     0.31602   0.21171   0.72888   0.13602  Uani   1.00
C28    C     0.29610   0.24245   0.80640   0.06346  Uani   1.00
C29    C     0.36192   0.16277   0.86630   0.04642  Uani   1.00
C30    C     0.41985   0.08078   0.98232   0.04569  Uani   1.00
C31    C     0.47961   0.03789   0.92026   0.04374  Uani   1.00
C32    C     0.56154   0.95569   0.93624   0.04443  Uani   1.00
H33    H     0.60739   0.92233   0.88887   0.05300  Uiso   1.00
N34    N     0.84551   0.66049   0.94569   0.04891  Uani   1.00
N35    N     0.94075   0.59252   0.84693   0.04454  Uani   1.00
F36    F     0.79568   0.90664   0.81620   0.08617  Uani   1.00
F37    F     0.70888   0.69154   0.81642   0.13419  Uani   1.00
F38    F     0.81602   0.71171   0.72888   0.13602  Uani   1.00
C39    C     0.79610   0.74245   0.80640   0.06346  Uani   1.00
C40    C     0.86192   0.66277   0.86630   0.04642  Uani   1.00
C41    C     0.91985   0.58078   0.98232   0.04569  Uani   1.00
C42    C     0.97961   0.53789   0.92026   0.04374  Uani   1.00
C43    C     0.06154   0.45569   0.93624   0.04443  Uani   1.00
H44    H     0.10739   0.42233   0.88887   0.05300  Uiso   1.00
N45    N     0.34551   0.83951   0.44569   0.04891  Uani   1.00
N46    N     0.44075   0.90748   0.34693   0.04454  Uani   1.00
F47    F     0.29568   0.59336   0.31620   0.08617  Uani   1.00
F48    F     0.20888   0.80846   0.31642   0.13419  Uani   1.00
F49    F     0.31602   0.78829   0.22888   0.13602  Uani   1.00
C50    C     0.29610   0.75755   0.30640   0.06346  Uani   1.00
C51    C     0.36192   0.83723   0.36631   0.04642  Uani   1.00
C52    C     0.41985   0.91923   0.48232   0.04569  Uani   1.00
C53    C     0.47961   0.96211   0.42026   0.04374  Uani   1.00
C54    C     0.56154   0.04431   0.43624   0.04443  Uani   1.00
H55    H     0.60739   0.07767   0.38887   0.05300  Uiso   1.00
N56    N     0.84551   0.33951   0.44569   0.04891  Uani   1.00
N57    N     0.94075   0.40748   0.34693   0.04454  Uani   1.00
F58    F     0.79568   0.09336   0.31620   0.08617  Uani   1.00
F59    F     0.70888   0.30846   0.31642   0.13419  Uani   1.00
F60    F     0.81602   0.28829   0.22888   0.13602  Uani   1.00
C61    C     0.79610   0.25755   0.30640   0.06346  Uani   1.00
C62    C     0.86192   0.33723   0.36631   0.04642  Uani   1.00
C63    C     0.91985   0.41923   0.48232   0.04569  Uani   1.00
C64    C     0.97961   0.46211   0.42026   0.04374  Uani   1.00
C65    C     0.06154   0.54431   0.43624   0.04443  Uani   1.00
H66    H     0.10739   0.57767   0.38887   0.05300  Uiso   1.00
N67    N     0.65449   0.83951   0.05431   0.04891  Uani   1.00
N68    N     0.55925   0.90748   0.15307   0.04454  Uani   1.00
F69    F     0.70432   0.59336   0.18380   0.08617  Uani   1.00
F70    F     0.79112   0.80847   0.18358   0.13419  Uani   1.00
F71    F     0.68398   0.78829   0.27112   0.13602  Uani   1.00
C72    C     0.70390   0.75755   0.19360   0.06346  Uani   1.00
C73    C     0.63808   0.83723   0.13370   0.04642  Uani   1.00
C74    C     0.58015   0.91923   0.01768   0.04569  Uani   1.00
C75    C     0.52039   0.96211   0.07974   0.04374  Uani   1.00
C76    C     0.43846   0.04431   0.06376   0.04443  Uani   1.00
H77    H     0.39261   0.07767   0.11113   0.05300  Uiso   1.00
N78    N     0.15449   0.33951   0.05431   0.04891  Uani   1.00
N79    N     0.05925   0.40748   0.15307   0.04454  Uani   1.00
F80    F     0.20432   0.09336   0.18380   0.08617  Uani   1.00
F81    F     0.29112   0.30847   0.18358   0.13419  Uani   1.00
F82    F     0.18398   0.28829   0.27112   0.13602  Uani   1.00
C83    C     0.20390   0.25755   0.19360   0.06346  Uani   1.00
C84    C     0.13808   0.33723   0.13370   0.04642  Uani   1.00
C85    C     0.08015   0.41923   0.01768   0.04569  Uani   1.00
C86    C     0.02039   0.46211   0.07974   0.04374  Uani   1.00
C87    C     0.93846   0.54431   0.06376   0.04443  Uani   1.00
H88    H     0.89261   0.57767   0.11113   0.05300  Uiso   1.00
Cu89   Cu    0.75000   0.25000   0.50000   0.05119  Uani   1.00
Cu90   Cu    0.25000   0.25000  -0.00000   0.05119  Uani   1.00
Cu91   Cu    0.25000   0.75000   0.50000   0.05119  Uani   1.00
Cu92   Cu    0.75000   0.75000  -0.00000   0.05119  Uani   1.00
Cu93   Cu    0.50000   0.08830   0.75000   0.04559  Uani   1.00
Cu94   Cu    0.00000   0.58830   0.75000   0.04559  Uani   1.00
Cu95   Cu    0.50000   0.91170   0.25000   0.04559  Uani   1.00
Cu96   Cu   -0.00000   0.41170   0.25000   0.04559  Uani   1.00
C97    C     0.56180   0.53231   0.43488   0.00000  Uiso   1.00
C98    C     0.58436   0.58371   0.51366   0.00000  Uiso   1.00
C99    C     0.52564   0.54905   0.57548   0.00000  Uiso   1.00
C100   C     0.44501   0.46415   0.55862   0.00000  Uiso   1.00
C101   C     0.42095   0.41199   0.47950   0.00000  Uiso   1.00
C102   C     0.48091   0.44721   0.41820   0.00000  Uiso   1.00
C103   C     0.33643   0.32405   0.45886   0.00000  Uiso   1.00
C104   C     0.26852   0.29246   0.50803   0.00000  Uiso   1.00
H105   H     0.60726   0.55880   0.38613   0.00000  Uiso   1.00
H106   H     0.64744   0.65101   0.52696   0.00000  Uiso   1.00
H107   H     0.54300   0.58882   0.63734   0.00000  Uiso   1.00
H108   H     0.40007   0.43683   0.60760   0.00000  Uiso   1.00
H109   H     0.46297   0.40701   0.35643   0.00000  Uiso   1.00
H110   H     0.32917   0.28281   0.39594   0.00000  Uiso   1.00
H111   H     0.27098   0.33129   0.57127   0.00000  Uiso   1.00
H112   H     0.20805   0.22529   0.48635   0.00000  Uiso   1.00
loop_
_atom_site_aniso_label
_atom_site_aniso_U_11
_atom_site_aniso_U_22
_atom_site_aniso_U_33
_atom_site_aniso_U_12
_atom_site_aniso_U_13
_atom_site_aniso_U_23
N1        0.04200   0.06200   0.04350  -0.01080   0.01010  -0.00190
N2        0.04400   0.05800   0.03260  -0.00840   0.01210  -0.00060
F3        0.09000   0.09800   0.07100  -0.06300   0.00900  -0.00500
F4        0.10700   0.11700   0.17000   0.03300  -0.08200  -0.01500
F5        0.09600   0.25000   0.06700  -0.10000   0.05500  -0.09000
C6        0.06100   0.08300   0.04700  -0.01700   0.00900  -0.00400
C7        0.04900   0.05100   0.04000  -0.00700   0.00990   0.00030
C8        0.04200   0.05700   0.03900  -0.00740   0.01170   0.00070
C9        0.04100   0.05200   0.03900  -0.00470   0.00990  -0.00210
C10       0.03600   0.06100   0.03800  -0.01090   0.01950   0.00080
N12       0.04200   0.06200   0.04350  -0.01080   0.01010  -0.00190
N13       0.04400   0.05800   0.03260  -0.00840   0.01210  -0.00060
F14       0.09000   0.09800   0.07100  -0.06300   0.00900  -0.00500
F15       0.10700   0.11700   0.17000   0.03300  -0.08200  -0.01500
F16       0.09600   0.25000   0.06700  -0.10000   0.05500  -0.09000
C17       0.06100   0.08300   0.04700  -0.01700   0.00900  -0.00400
C18       0.04900   0.05100   0.04000  -0.00700   0.00990   0.00030
C19       0.04200   0.05700   0.03900  -0.00740   0.01170   0.00070
C20       0.04100   0.05200   0.03900  -0.00470   0.00990  -0.00210
C21       0.03600   0.06100   0.03800  -0.01090   0.01950   0.00080
N23       0.04200   0.06200   0.04350   0.01080   0.01010   0.00190
N24       0.04400   0.05800   0.03260   0.00840   0.01210   0.00060
F25       0.09000   0.09800   0.07100   0.06300   0.00900   0.00500
F26       0.10700   0.11700   0.17000  -0.03300  -0.08200   0.01500
F27       0.09600   0.25000   0.06700   0.10000   0.05500   0.09000
C28       0.06100   0.08300   0.04700   0.01700   0.00900   0.00400
C29       0.04900   0.05100   0.04000   0.00700   0.00990  -0.00030
C30       0.04200   0.05700   0.03900   0.00740   0.01170  -0.00070
C31       0.04100   0.05200   0.03900   0.00470   0.00990   0.00210
C32       0.03600   0.06100   0.03800   0.01090   0.01950  -0.00080
N34       0.04200   0.06200   0.04350   0.01080   0.01010   0.00190
N35       0.04400   0.05800   0.03260   0.00840   0.01210   0.00060
F36       0.09000   0.09800   0.07100   0.06300   0.00900   0.00500
F37       0.10700   0.11700   0.17000  -0.03300  -0.08200   0.01500
F38       0.09600   0.25000   0.06700   0.10000   0.05500   0.09000
C39       0.06100   0.08300   0.04700   0.01700   0.00900   0.00400
C40       0.04900   0.05100   0.04000   0.00700   0.00990  -0.00030
C41       0.04200   0.05700   0.03900   0.00740   0.01170  -0.00070
C42       0.04100   0.05200   0.03900   0.00470   0.00990   0.00210
C43       0.03600   0.06100   0.03800   0.01090   0.01950  -0.00080
N45       0.04200   0.06200   0.04350  -0.01080   0.01010  -0.00190
N46       0.04400   0.05800   0.03260  -0.00840   0.01210  -0.00060
F47       0.09000   0.09800   0.07100  -0.06300   0.00900  -0.00500
F48       0.10700   0.11700   0.17000   0.03300  -0.08200  -0.01500
F49       0.09600   0.25000   0.06700  -0.10000   0.05500  -0.09000
C50       0.06100   0.08300   0.04700  -0.01700   0.00900  -0.00400
C51       0.04900   0.05100   0.04000  -0.00700   0.00990   0.00030
C52       0.04200   0.05700   0.03900  -0.00740   0.01170   0.00070
C53       0.04100   0.05200   0.03900  -0.00470   0.00990  -0.00210
C54       0.03600   0.06100   0.03800  -0.01090   0.01950   0.00080
N56       0.04200   0.06200   0.04350  -0.01080   0.01010  -0.00190
N57       0.04400   0.05800   0.03260  -0.00840   0.01210  -0.00060
F58       0.09000   0.09800   0.07100  -0.06300   0.00900  -0.00500
F59       0.10700   0.11700   0.17000   0.03300  -0.08200  -0.01500
F60       0.09600   0.25000   0.06700  -0.10000   0.05500  -0.09000
C61       0.06100   0.08300   0.04700  -0.01700   0.00900  -0.00400
C62       0.04900   0.05100   0.04000  -0.00700   0.00990   0.00030
C63       0.04200   0.05700   0.03900  -0.00740   0.01170   0.00070
C64       0.04100   0.05200   0.03900  -0.00470   0.00990  -0.00210
C65       0.03600   0.06100   0.03800  -0.01090   0.01950   0.00080
N67       0.04200   0.06200   0.04350   0.01080   0.01010   0.00190
N68       0.04400   0.05800   0.03260   0.00840   0.01210   0.00060
F69       0.09000   0.09800   0.07100   0.06300   0.00900   0.00500
F70       0.10700   0.11700   0.17000  -0.03300  -0.08200   0.01500
F71       0.09600   0.25000   0.06700   0.10000   0.05500   0.09000
C72       0.06100   0.08300   0.04700   0.01700   0.00900   0.00400
C73       0.04900   0.05100   0.04000   0.00700   0.00990  -0.00030
C74       0.04200   0.05700   0.03900   0.00740   0.01170  -0.00070
C75       0.04100   0.05200   0.03900   0.00470   0.00990   0.00210
C76       0.03600   0.06100   0.03800   0.01090   0.01950  -0.00080
N78       0.04200   0.06200   0.04350   0.01080   0.01010   0.00190
N79       0.04400   0.05800   0.03260   0.00840   0.01210   0.00060
F80       0.09000   0.09800   0.07100   0.06300   0.00900   0.00500
F81       0.10700   0.11700   0.17000  -0.03300  -0.08200   0.01500
F82       0.09600   0.25000   0.06700   0.10000   0.05500   0.09000
C83       0.06100   0.08300   0.04700   0.01700   0.00900   0.00400
C84       0.04900   0.05100   0.04000   0.00700   0.00990  -0.00030
C85       0.04200   0.05700   0.03900   0.00740   0.01170  -0.00070
C86       0.04100   0.05200   0.03900   0.00470   0.00990   0.00210
C87       0.03600   0.06100   0.03800   0.01090   0.01950  -0.00080
Cu89      0.04380   0.07000   0.04070  -0.01870   0.01180  -0.00030
Cu90      0.04380   0.07000   0.04070   0.01870   0.01180   0.00030
Cu91      0.04380   0.07000   0.04070  -0.01870   0.01180  -0.00030
Cu92      0.04380   0.07000   0.04070   0.01870   0.01180   0.00030
Cu93      0.04400   0.06130   0.03240  -0.00000   0.01140  -0.00000
Cu94      0.04400   0.06130   0.03240  -0.00000   0.01140  -0.00000
Cu95      0.04400   0.06130   0.03240  -0.00000   0.01140  -0.00000
Cu96      0.04400   0.06130   0.03240  -0.00000   0.01140  -0.00000
loop_
_geom_bond_atom_site_label_1
_geom_bond_atom_site_label_2
_geom_bond_distance
_geom_bond_site_symmetry_2
_ccdc_geom_bond_type
N1     Cu89    1.856   .     S
N1     C7      1.347   .     A
N1     C8      1.389   .     A
N2     Cu93    1.862   .     S
N2     C7      1.347   .     A
N2     C9      1.391   .     A
F3     C6      1.367   .     S
F4     C6      1.366   .     S
F5     C6      1.354   .     S
C6     C7      1.503   .     S
C8     C9      1.428   .     A
C8     C54     1.396   .     A
C9     C10     1.396   1_545 A
C10    H11     1.093   .     S
C10    C9      1.396   1_565 A
C10    C52     1.396   .     A
N12    Cu91    1.856   .     S
N12    C18     1.347   .     A
N12    C19     1.389   .     A
N13    Cu94    1.862   .     S
N13    C18     1.347   .     A
N13    C20     1.391   .     A
F14    C17     1.367   .     S
F15    C17     1.366   .     S
F16    C17     1.354   .     S
C17    C18     1.503   .     S
C19    C20     1.428   .     A
C19    C65     1.396   .     A
C20    C21     1.396   1_455 A
C21    H22     1.093   .     S
C21    C20     1.396   1_655 A
C21    C63     1.396   .     A
N23    Cu90    1.856   1_556 S
N23    C29     1.347   .     A
N23    C30     1.389   .     A
N24    Cu93    1.862   .     S
N24    C29     1.347   .     A
N24    C31     1.391   .     A
F25    C28     1.367   .     S
F26    C28     1.366   .     S
F27    C28     1.354   .     S
C28    C29     1.503   .     S
C30    C31     1.428   .     A
C30    C76     1.396   1_556 A
C31    C32     1.396   1_545 A
C32    H33     1.093   .     S
C32    C31     1.396   1_565 A
C32    C74     1.396   1_556 A
N34    Cu92    1.856   1_556 S
N34    C40     1.347   .     A
N34    C41     1.389   .     A
N35    Cu94    1.862   1_655 S
N35    C40     1.347   .     A
N35    C42     1.391   .     A
F36    C39     1.367   .     S
F37    C39     1.366   .     S
F38    C39     1.354   .     S
C39    C40     1.503   .     S
C41    C42     1.428   .     A
C41    C87     1.396   1_556 A
C42    C43     1.396   1_655 A
C43    H44     1.093   .     S
C43    C42     1.396   1_455 A
C43    C85     1.396   1_556 A
N45    Cu91    1.856   .     S
N45    C51     1.347   .     A
N45    C52     1.389   .     A
N46    Cu95    1.862   .     S
N46    C51     1.347   .     A
N46    C53     1.391   .     A
F47    C50     1.367   .     S
F48    C50     1.366   .     S
F49    C50     1.354   .     S
C50    C51     1.503   .     S
C52    C53     1.428   .     A
C53    C54     1.396   1_565 A
C54    H55     1.093   .     S
C54    C53     1.396   1_545 A
N56    Cu89    1.856   .     S
N56    C62     1.347   .     A
N56    C63     1.389   .     A
N57    Cu96    1.862   1_655 S
N57    C62     1.347   .     A
N57    C64     1.391   .     A
F58    C61     1.367   .     S
F59    C61     1.366   .     S
F60    C61     1.354   .     S
C61    C62     1.503   .     S
C63    C64     1.428   .     A
C64    C65     1.396   1_655 A
C65    H66     1.093   .     S
C65    C64     1.396   1_455 A
N67    Cu92    1.856   .     S
N67    C73     1.347   .     A
N67    C74     1.389   .     A
N68    Cu95    1.862   .     S
N68    C73     1.347   .     A
N68    C75     1.391   .     A
F69    C72     1.367   .     S
F70    C72     1.366   .     S
F71    C72     1.354   .     S
C72    C73     1.503   .     S
C74    C75     1.428   .     A
C74    C32     1.396   1_554 A
C75    C76     1.396   1_565 A
C76    H77     1.093   .     S
C76    C75     1.396   1_545 A
C76    C30     1.396   1_554 A
N78    Cu90    1.856   .     S
N78    C84     1.347   .     A
N78    C85     1.389   .     A
N79    Cu96    1.862   .     S
N79    C84     1.347   .     A
N79    C86     1.391   .     A
F80    C83     1.367   .     S
F81    C83     1.366   .     S
F82    C83     1.354   .     S
C83    C84     1.503   .     S
C85    C86     1.428   .     A
C85    C43     1.396   1_554 A
C86    C87     1.396   1_455 A
C87    H88     1.093   .     S
C87    C86     1.396   1_655 A
C87    C41     1.396   1_554 A
Cu90   N23     1.856   1_554 S
Cu92   N34     1.856   1_554 S
Cu94   N35     1.862   1_455 S
Cu96   N57     1.862   1_455 S
C97    C98     1.396   .     A
C97    C102    1.397   .     A
C97    H105    1.094   .     S
C98    C99     1.399   .     A
C98    H106    1.094   .     S
C99    C100    1.393   .     A
C99    H107    1.094   .     S
C100   C101    1.408   .     A
C100   H108    1.093   .     S
C101   C102    1.406   .     A
C101   C103    1.464   .     S
C102   H109    1.095   .     S
C103   C104    1.343   .     D
C103   H110    1.096   .     S
C104   H111    1.094   .     S
C104   H112    1.093   .     S
